# Packages
 &PACKAGES
 useGMRedi=.FALSE.,
 usePTRACERS=.TRUE.
 useGCHEM=.TRUE.,
 useKPP=.TRUE.,
 useMNC=.TRUE.,
 useDiagnostics=.TRUE.,
 &
